ACCESS-OM3
1900 1 1 0 0 0

#########################################################################################################
#                                                                                                       #
# DO NOT EDIT! Instead, edit diag_table_source.yaml and run make_diag_table.py to re-generate this file #
#                                                                                                       #
#########################################################################################################


# static 2d grid data

"access-om3.mom6.static", -1, "months", 1, "days", "time"
"ocean_model", "areacello", "areacello", "access-om3.mom6.static", "all", "none", "none", 1
"ocean_model", "areacello_cu", "areacello_cu", "access-om3.mom6.static", "all", "none", "none", 1
"ocean_model", "areacello_cv", "areacello_cv", "access-om3.mom6.static", "all", "none", "none", 1
"ocean_model", "areacello_bu", "areacello_bu", "access-om3.mom6.static", "all", "none", "none", 1
"ocean_model", "dxt", "dxt", "access-om3.mom6.static", "all", "none", "none", 1
"ocean_model", "dyt", "dyt", "access-om3.mom6.static", "all", "none", "none", 1
"ocean_model", "geolat_c", "geolat_c", "access-om3.mom6.static", "all", "none", "none", 1
"ocean_model", "geolat", "geolat", "access-om3.mom6.static", "all", "none", "none", 1
"ocean_model", "geolat_u", "geolat_u", "access-om3.mom6.static", "all", "none", "none", 1
"ocean_model", "geolat_v", "geolat_v", "access-om3.mom6.static", "all", "none", "none", 1
"ocean_model", "geolon_c", "geolon_c", "access-om3.mom6.static", "all", "none", "none", 1
"ocean_model", "geolon", "geolon", "access-om3.mom6.static", "all", "none", "none", 1
"ocean_model", "geolon_u", "geolon_u", "access-om3.mom6.static", "all", "none", "none", 1
"ocean_model", "geolon_v", "geolon_v", "access-om3.mom6.static", "all", "none", "none", 1
"ocean_model", "deptho", "deptho", "access-om3.mom6.static", "all", "none", "none", 1
"ocean_model", "wet", "wet", "access-om3.mom6.static", "all", "none", "none", 1
"ocean_model", "wet_c", "wet_c", "access-om3.mom6.static", "all", "none", "none", 1
"ocean_model", "wet_u", "wet_u", "access-om3.mom6.static", "all", "none", "none", 1
"ocean_model", "wet_v", "wet_v", "access-om3.mom6.static", "all", "none", "none", 1
"ocean_model", "Coriolis", "Coriolis", "access-om3.mom6.static", "all", "none", "none", 1
"ocean_model", "sin_rot", "sin_rot", "access-om3.mom6.static", "all", "none", "none", 1
"ocean_model", "cos_rot", "cos_rot", "access-om3.mom6.static", "all", "none", "none", 1
"ocean_model", "dxCu", "dxCu", "access-om3.mom6.static", "all", "none", "none", 1
"ocean_model", "dyCu", "dyCu", "access-om3.mom6.static", "all", "none", "none", 1
"ocean_model", "dxCv", "dxCv", "access-om3.mom6.static", "all", "none", "none", 1
"ocean_model", "dyCv", "dyCv", "access-om3.mom6.static", "all", "none", "none", 1
"ocean_model", "dyCuo", "dyCuo", "access-om3.mom6.static", "all", "none", "none", 1
"ocean_model", "dxCvo", "dxCvo", "access-om3.mom6.static", "all", "none", "none", 1


# 3d fields on native

"access-om3.mom6.3d.e.1day.mean.%4yr", 1, "days", 1, "days", "time", 1, "years"
"ocean_model", "e", "e", "access-om3.mom6.3d.e.1day.mean.%4yr", "all", "average", "none", 2

"access-om3.mom6.3d.thkcello.1day.mean.%4yr", 1, "days", 1, "days", "time", 1, "years"
"ocean_model", "thkcello", "thkcello", "access-om3.mom6.3d.thkcello.1day.mean.%4yr", "all", "average", "none", 2

"access-om3.mom6.3d.thetao.1day.mean.%4yr", 1, "days", 1, "days", "time", 1, "years"
"ocean_model", "thetao", "thetao", "access-om3.mom6.3d.thetao.1day.mean.%4yr", "all", "average", "none", 2

"access-om3.mom6.3d.so.1day.mean.%4yr", 1, "days", 1, "days", "time", 1, "years"
"ocean_model", "so", "so", "access-om3.mom6.3d.so.1day.mean.%4yr", "all", "average", "none", 2

"access-om3.mom6.3d.uo.1day.mean.%4yr", 1, "days", 1, "days", "time", 1, "years"
"ocean_model", "uo", "uo", "access-om3.mom6.3d.uo.1day.mean.%4yr", "all", "average", "none", 2

"access-om3.mom6.3d.vo.1day.mean.%4yr", 1, "days", 1, "days", "time", 1, "years"
"ocean_model", "vo", "vo", "access-om3.mom6.3d.vo.1day.mean.%4yr", "all", "average", "none", 2

"access-om3.mom6.3d.Kd_interface.1day.mean.%4yr", 1, "days", 1, "days", "time", 1, "years"
"ocean_model", "Kd_interface", "Kd_interface", "access-om3.mom6.3d.Kd_interface.1day.mean.%4yr", "all", "average", "none", 2


# 2d fields

"access-om3.mom6.2d.ePBL_h_ML.1day.mean.%4yr", 1, "days", 1, "days", "time", 1, "years"
"ocean_model", "ePBL_h_ML", "ePBL_h_ML", "access-om3.mom6.2d.ePBL_h_ML.1day.mean.%4yr", "all", "average", "none", 2

"access-om3.mom6.2d.h_ML.1day.mean.%4yr", 1, "days", 1, "days", "time", 1, "years"
"ocean_model", "h_ML", "h_ML", "access-om3.mom6.2d.h_ML.1day.mean.%4yr", "all", "average", "none", 2

"access-om3.mom6.2d.mlotst.1day.mean.%4yr", 1, "days", 1, "days", "time", 1, "years"
"ocean_model", "mlotst", "mlotst", "access-om3.mom6.2d.mlotst.1day.mean.%4yr", "all", "average", "none", 2

"access-om3.mom6.2d.tauuo.1day.mean.%4yr", 1, "days", 1, "days", "time", 1, "years"
"ocean_model", "tauuo", "tauuo", "access-om3.mom6.2d.tauuo.1day.mean.%4yr", "all", "average", "none", 2

"access-om3.mom6.2d.tauvo.1day.mean.%4yr", 1, "days", 1, "days", "time", 1, "years"
"ocean_model", "tauvo", "tauvo", "access-om3.mom6.2d.tauvo.1day.mean.%4yr", "all", "average", "none", 2

"access-om3.mom6.2d.ustar.1day.mean.%4yr", 1, "days", 1, "days", "time", 1, "years"
"ocean_model", "ustar", "ustar", "access-om3.mom6.2d.ustar.1day.mean.%4yr", "all", "average", "none", 2

"access-om3.mom6.2d.wfo.1day.mean.%4yr", 1, "days", 1, "days", "time", 1, "years"
"ocean_model", "wfo", "wfo", "access-om3.mom6.2d.wfo.1day.mean.%4yr", "all", "average", "none", 2

"access-om3.mom6.2d.pso.1day.mean.%4yr", 1, "days", 1, "days", "time", 1, "years"
"ocean_model", "pso", "pso", "access-om3.mom6.2d.pso.1day.mean.%4yr", "all", "average", "none", 2

"access-om3.mom6.2d.evs.1day.mean.%4yr", 1, "days", 1, "days", "time", 1, "years"
"ocean_model", "evs", "evs", "access-om3.mom6.2d.evs.1day.mean.%4yr", "all", "average", "none", 2

"access-om3.mom6.2d.prlq.1day.mean.%4yr", 1, "days", 1, "days", "time", 1, "years"
"ocean_model", "prlq", "prlq", "access-om3.mom6.2d.prlq.1day.mean.%4yr", "all", "average", "none", 2

"access-om3.mom6.2d.prsn.1day.mean.%4yr", 1, "days", 1, "days", "time", 1, "years"
"ocean_model", "prsn", "prsn", "access-om3.mom6.2d.prsn.1day.mean.%4yr", "all", "average", "none", 2

"access-om3.mom6.2d.rsntds.1day.mean.%4yr", 1, "days", 1, "days", "time", 1, "years"
"ocean_model", "rsntds", "rsntds", "access-om3.mom6.2d.rsntds.1day.mean.%4yr", "all", "average", "none", 2

"access-om3.mom6.2d.rlntds.1day.mean.%4yr", 1, "days", 1, "days", "time", 1, "years"
"ocean_model", "rlntds", "rlntds", "access-om3.mom6.2d.rlntds.1day.mean.%4yr", "all", "average", "none", 2

"access-om3.mom6.2d.hfsso.1day.mean.%4yr", 1, "days", 1, "days", "time", 1, "years"
"ocean_model", "hfsso", "hfsso", "access-om3.mom6.2d.hfsso.1day.mean.%4yr", "all", "average", "none", 2

"access-om3.mom6.2d.friver.1day.mean.%4yr", 1, "days", 1, "days", "time", 1, "years"
"ocean_model", "friver", "friver", "access-om3.mom6.2d.friver.1day.mean.%4yr", "all", "average", "none", 2

"access-om3.mom6.2d.ficeberg.1day.mean.%4yr", 1, "days", 1, "days", "time", 1, "years"
"ocean_model", "ficeberg", "ficeberg", "access-om3.mom6.2d.ficeberg.1day.mean.%4yr", "all", "average", "none", 2

"access-om3.mom6.2d.hfrunoffds.1day.mean.%4yr", 1, "days", 1, "days", "time", 1, "years"
"ocean_model", "hfrunoffds", "hfrunoffds", "access-om3.mom6.2d.hfrunoffds.1day.mean.%4yr", "all", "average", "none", 2

"access-om3.mom6.2d.hfrainds.1day.mean.%4yr", 1, "days", 1, "days", "time", 1, "years"
"ocean_model", "hfrainds", "hfrainds", "access-om3.mom6.2d.hfrainds.1day.mean.%4yr", "all", "average", "none", 2

"access-om3.mom6.2d.net_heat_coupler.1day.mean.%4yr", 1, "days", 1, "days", "time", 1, "years"
"ocean_model", "net_heat_coupler", "net_heat_coupler", "access-om3.mom6.2d.net_heat_coupler.1day.mean.%4yr", "all", "average", "none", 2

"access-om3.mom6.2d.hfds.1day.mean.%4yr", 1, "days", 1, "days", "time", 1, "years"
"ocean_model", "hfds", "hfds", "access-om3.mom6.2d.hfds.1day.mean.%4yr", "all", "average", "none", 2


# 3d prognostic BGC fields

"access-om3.mom6.3d.alk.1day.mean.%4yr", 1, "days", 1, "days", "time", 1, "years"
"generic_wombatmid", "alk", "alk", "access-om3.mom6.3d.alk.1day.mean.%4yr", "all", "average", "none", 2

"access-om3.mom6.3d.caco3.1day.mean.%4yr", 1, "days", 1, "days", "time", 1, "years"
"generic_wombatmid", "caco3", "caco3", "access-om3.mom6.3d.caco3.1day.mean.%4yr", "all", "average", "none", 2

"access-om3.mom6.3d.det.1day.mean.%4yr", 1, "days", 1, "days", "time", 1, "years"
"generic_wombatmid", "det", "det", "access-om3.mom6.3d.det.1day.mean.%4yr", "all", "average", "none", 2

"access-om3.mom6.3d.detfe.1day.mean.%4yr", 1, "days", 1, "days", "time", 1, "years"
"generic_wombatmid", "detfe", "detfe", "access-om3.mom6.3d.detfe.1day.mean.%4yr", "all", "average", "none", 2

"access-om3.mom6.3d.bdet.1day.mean.%4yr", 1, "days", 1, "days", "time", 1, "years"
"generic_wombatmid", "bdet", "bdet", "access-om3.mom6.3d.bdet.1day.mean.%4yr", "all", "average", "none", 2

"access-om3.mom6.3d.bdetfe.1day.mean.%4yr", 1, "days", 1, "days", "time", 1, "years"
"generic_wombatmid", "bdetfe", "bdetfe", "access-om3.mom6.3d.bdetfe.1day.mean.%4yr", "all", "average", "none", 2

"access-om3.mom6.3d.bdetsi.1day.mean.%4yr", 1, "days", 1, "days", "time", 1, "years"
"generic_wombatmid", "bdetsi", "bdetsi", "access-om3.mom6.3d.bdetsi.1day.mean.%4yr", "all", "average", "none", 2

"access-om3.mom6.3d.doc.1day.mean.%4yr", 1, "days", 1, "days", "time", 1, "years"
"generic_wombatmid", "doc", "doc", "access-om3.mom6.3d.doc.1day.mean.%4yr", "all", "average", "none", 2

"access-om3.mom6.3d.don.1day.mean.%4yr", 1, "days", 1, "days", "time", 1, "years"
"generic_wombatmid", "don", "don", "access-om3.mom6.3d.don.1day.mean.%4yr", "all", "average", "none", 2

"access-om3.mom6.3d.nosdoc.1day.mean.%4yr", 1, "days", 1, "days", "time", 1, "years"
"generic_wombatmid", "nosdoc", "nosdoc", "access-om3.mom6.3d.nosdoc.1day.mean.%4yr", "all", "average", "none", 2

"access-om3.mom6.3d.bac1.1day.mean.%4yr", 1, "days", 1, "days", "time", 1, "years"
"generic_wombatmid", "bac1", "bac1", "access-om3.mom6.3d.bac1.1day.mean.%4yr", "all", "average", "none", 2

"access-om3.mom6.3d.bac2.1day.mean.%4yr", 1, "days", 1, "days", "time", 1, "years"
"generic_wombatmid", "bac2", "bac2", "access-om3.mom6.3d.bac2.1day.mean.%4yr", "all", "average", "none", 2

"access-om3.mom6.3d.aoa.1day.mean.%4yr", 1, "days", 1, "days", "time", 1, "years"
"generic_wombatmid", "aoa", "aoa", "access-om3.mom6.3d.aoa.1day.mean.%4yr", "all", "average", "none", 2

"access-om3.mom6.3d.dic.1day.mean.%4yr", 1, "days", 1, "days", "time", 1, "years"
"generic_wombatmid", "dic", "dic", "access-om3.mom6.3d.dic.1day.mean.%4yr", "all", "average", "none", 2

"access-om3.mom6.3d.dicr.1day.mean.%4yr", 1, "days", 1, "days", "time", 1, "years"
"generic_wombatmid", "dicr", "dicr", "access-om3.mom6.3d.dicr.1day.mean.%4yr", "all", "average", "none", 2

"access-om3.mom6.3d.dicp.1day.mean.%4yr", 1, "days", 1, "days", "time", 1, "years"
"generic_wombatmid", "dicp", "dicp", "access-om3.mom6.3d.dicp.1day.mean.%4yr", "all", "average", "none", 2

"access-om3.mom6.3d.fe.1day.mean.%4yr", 1, "days", 1, "days", "time", 1, "years"
"generic_wombatmid", "fe", "fe", "access-om3.mom6.3d.fe.1day.mean.%4yr", "all", "average", "none", 2

"access-om3.mom6.3d.afe.1day.mean.%4yr", 1, "days", 1, "days", "time", 1, "years"
"generic_wombatmid", "afe", "afe", "access-om3.mom6.3d.afe.1day.mean.%4yr", "all", "average", "none", 2

"access-om3.mom6.3d.bafe.1day.mean.%4yr", 1, "days", 1, "days", "time", 1, "years"
"generic_wombatmid", "bafe", "bafe", "access-om3.mom6.3d.bafe.1day.mean.%4yr", "all", "average", "none", 2

"access-om3.mom6.3d.no3.1day.mean.%4yr", 1, "days", 1, "days", "time", 1, "years"
"generic_wombatmid", "no3", "no3", "access-om3.mom6.3d.no3.1day.mean.%4yr", "all", "average", "none", 2

"access-om3.mom6.3d.nh4.1day.mean.%4yr", 1, "days", 1, "days", "time", 1, "years"
"generic_wombatmid", "nh4", "nh4", "access-om3.mom6.3d.nh4.1day.mean.%4yr", "all", "average", "none", 2

"access-om3.mom6.3d.sil.1day.mean.%4yr", 1, "days", 1, "days", "time", 1, "years"
"generic_wombatmid", "sil", "sil", "access-om3.mom6.3d.sil.1day.mean.%4yr", "all", "average", "none", 2

"access-om3.mom6.3d.o2.1day.mean.%4yr", 1, "days", 1, "days", "time", 1, "years"
"generic_wombatmid", "o2", "o2", "access-om3.mom6.3d.o2.1day.mean.%4yr", "all", "average", "none", 2

"access-om3.mom6.3d.n2o.1day.mean.%4yr", 1, "days", 1, "days", "time", 1, "years"
"generic_wombatmid", "n2o", "n2o", "access-om3.mom6.3d.n2o.1day.mean.%4yr", "all", "average", "none", 2

"access-om3.mom6.3d.phy.1day.mean.%4yr", 1, "days", 1, "days", "time", 1, "years"
"generic_wombatmid", "phy", "phy", "access-om3.mom6.3d.phy.1day.mean.%4yr", "all", "average", "none", 2

"access-om3.mom6.3d.phyfe.1day.mean.%4yr", 1, "days", 1, "days", "time", 1, "years"
"generic_wombatmid", "phyfe", "phyfe", "access-om3.mom6.3d.phyfe.1day.mean.%4yr", "all", "average", "none", 2

"access-om3.mom6.3d.pchl.1day.mean.%4yr", 1, "days", 1, "days", "time", 1, "years"
"generic_wombatmid", "pchl", "pchl", "access-om3.mom6.3d.pchl.1day.mean.%4yr", "all", "average", "none", 2

"access-om3.mom6.3d.dia.1day.mean.%4yr", 1, "days", 1, "days", "time", 1, "years"
"generic_wombatmid", "dia", "dia", "access-om3.mom6.3d.dia.1day.mean.%4yr", "all", "average", "none", 2

"access-om3.mom6.3d.diafe.1day.mean.%4yr", 1, "days", 1, "days", "time", 1, "years"
"generic_wombatmid", "diafe", "diafe", "access-om3.mom6.3d.diafe.1day.mean.%4yr", "all", "average", "none", 2

"access-om3.mom6.3d.diasi.1day.mean.%4yr", 1, "days", 1, "days", "time", 1, "years"
"generic_wombatmid", "diasi", "diasi", "access-om3.mom6.3d.diasi.1day.mean.%4yr", "all", "average", "none", 2

"access-om3.mom6.3d.dchl.1day.mean.%4yr", 1, "days", 1, "days", "time", 1, "years"
"generic_wombatmid", "dchl", "dchl", "access-om3.mom6.3d.dchl.1day.mean.%4yr", "all", "average", "none", 2

"access-om3.mom6.3d.zoo.1day.mean.%4yr", 1, "days", 1, "days", "time", 1, "years"
"generic_wombatmid", "zoo", "zoo", "access-om3.mom6.3d.zoo.1day.mean.%4yr", "all", "average", "none", 2

"access-om3.mom6.3d.mes.1day.mean.%4yr", 1, "days", 1, "days", "time", 1, "years"
"generic_wombatmid", "mes", "mes", "access-om3.mom6.3d.mes.1day.mean.%4yr", "all", "average", "none", 2

"access-om3.mom6.3d.zoofe.1day.mean.%4yr", 1, "days", 1, "days", "time", 1, "years"
"generic_wombatmid", "zoofe", "zoofe", "access-om3.mom6.3d.zoofe.1day.mean.%4yr", "all", "average", "none", 2

"access-om3.mom6.3d.mesfe.1day.mean.%4yr", 1, "days", 1, "days", "time", 1, "years"
"generic_wombatmid", "mesfe", "mesfe", "access-om3.mom6.3d.mesfe.1day.mean.%4yr", "all", "average", "none", 2


# 3d diagnostic BGC fields

"access-om3.mom6.3d.npp3d.1day.mean.%4yr", 1, "days", 1, "days", "time", 1, "years"
"generic_wombatmid", "npp3d", "npp3d", "access-om3.mom6.3d.npp3d.1day.mean.%4yr", "all", "average", "none", 2

"access-om3.mom6.3d.rpp3d.1day.mean.%4yr", 1, "days", 1, "days", "time", 1, "years"
"generic_wombatmid", "rpp3d", "rpp3d", "access-om3.mom6.3d.rpp3d.1day.mean.%4yr", "all", "average", "none", 2

"access-om3.mom6.3d.zsp3d.1day.mean.%4yr", 1, "days", 1, "days", "time", 1, "years"
"generic_wombatmid", "zsp3d", "zsp3d", "access-om3.mom6.3d.zsp3d.1day.mean.%4yr", "all", "average", "none", 2

"access-om3.mom6.3d.radbio.1day.mean.%4yr", 1, "days", 1, "days", "time", 1, "years"
"generic_wombatmid", "radbio", "radbio", "access-om3.mom6.3d.radbio.1day.mean.%4yr", "all", "average", "none", 2

"access-om3.mom6.3d.nitrfix.1day.mean.%4yr", 1, "days", 1, "days", "time", 1, "years"
"generic_wombatmid", "nitrfix", "nitrfix", "access-om3.mom6.3d.nitrfix.1day.mean.%4yr", "all", "average", "none", 2

"access-om3.mom6.3d.phy_mu.1day.mean.%4yr", 1, "days", 1, "days", "time", 1, "years"
"generic_wombatmid", "phy_mu", "phy_mu", "access-om3.mom6.3d.phy_mu.1day.mean.%4yr", "all", "average", "none", 2

"access-om3.mom6.3d.phygrow.1day.mean.%4yr", 1, "days", 1, "days", "time", 1, "years"
"generic_wombatmid", "phygrow", "phygrow", "access-om3.mom6.3d.phygrow.1day.mean.%4yr", "all", "average", "none", 2

"access-om3.mom6.3d.phydoc.1day.mean.%4yr", 1, "days", 1, "days", "time", 1, "years"
"generic_wombatmid", "phydoc", "phydoc", "access-om3.mom6.3d.phydoc.1day.mean.%4yr", "all", "average", "none", 2

"access-om3.mom6.3d.phy_lpar.1day.mean.%4yr", 1, "days", 1, "days", "time", 1, "years"
"generic_wombatmid", "phy_lpar", "phy_lpar", "access-om3.mom6.3d.phy_lpar.1day.mean.%4yr", "all", "average", "none", 2

"access-om3.mom6.3d.phy_lnit.1day.mean.%4yr", 1, "days", 1, "days", "time", 1, "years"
"generic_wombatmid", "phy_lnit", "phy_lnit", "access-om3.mom6.3d.phy_lnit.1day.mean.%4yr", "all", "average", "none", 2

"access-om3.mom6.3d.phy_lfer.1day.mean.%4yr", 1, "days", 1, "days", "time", 1, "years"
"generic_wombatmid", "phy_lfer", "phy_lfer", "access-om3.mom6.3d.phy_lfer.1day.mean.%4yr", "all", "average", "none", 2

"access-om3.mom6.3d.phy_dfeupt.1day.mean.%4yr", 1, "days", 1, "days", "time", 1, "years"
"generic_wombatmid", "phy_dfeupt", "phy_dfeupt", "access-om3.mom6.3d.phy_dfeupt.1day.mean.%4yr", "all", "average", "none", 2

"access-om3.mom6.3d.dia_mu.1day.mean.%4yr", 1, "days", 1, "days", "time", 1, "years"
"generic_wombatmid", "dia_mu", "dia_mu", "access-om3.mom6.3d.dia_mu.1day.mean.%4yr", "all", "average", "none", 2

"access-om3.mom6.3d.diagrow.1day.mean.%4yr", 1, "days", 1, "days", "time", 1, "years"
"generic_wombatmid", "diagrow", "diagrow", "access-om3.mom6.3d.diagrow.1day.mean.%4yr", "all", "average", "none", 2

"access-om3.mom6.3d.diadoc.1day.mean.%4yr", 1, "days", 1, "days", "time", 1, "years"
"generic_wombatmid", "diadoc", "diadoc", "access-om3.mom6.3d.diadoc.1day.mean.%4yr", "all", "average", "none", 2

"access-om3.mom6.3d.dia_lpar.1day.mean.%4yr", 1, "days", 1, "days", "time", 1, "years"
"generic_wombatmid", "dia_lpar", "dia_lpar", "access-om3.mom6.3d.dia_lpar.1day.mean.%4yr", "all", "average", "none", 2

"access-om3.mom6.3d.dia_lnit.1day.mean.%4yr", 1, "days", 1, "days", "time", 1, "years"
"generic_wombatmid", "dia_lnit", "dia_lnit", "access-om3.mom6.3d.dia_lnit.1day.mean.%4yr", "all", "average", "none", 2

"access-om3.mom6.3d.dia_lfer.1day.mean.%4yr", 1, "days", 1, "days", "time", 1, "years"
"generic_wombatmid", "dia_lfer", "dia_lfer", "access-om3.mom6.3d.dia_lfer.1day.mean.%4yr", "all", "average", "none", 2

"access-om3.mom6.3d.dia_lsil.1day.mean.%4yr", 1, "days", 1, "days", "time", 1, "years"
"generic_wombatmid", "dia_lsil", "dia_lsil", "access-om3.mom6.3d.dia_lsil.1day.mean.%4yr", "all", "average", "none", 2

"access-om3.mom6.3d.dia_dfeupt.1day.mean.%4yr", 1, "days", 1, "days", "time", 1, "years"
"generic_wombatmid", "dia_dfeupt", "dia_dfeupt", "access-om3.mom6.3d.dia_dfeupt.1day.mean.%4yr", "all", "average", "none", 2

"access-om3.mom6.3d.dia_silupt.1day.mean.%4yr", 1, "days", 1, "days", "time", 1, "years"
"generic_wombatmid", "dia_silupt", "dia_silupt", "access-om3.mom6.3d.dia_silupt.1day.mean.%4yr", "all", "average", "none", 2

"access-om3.mom6.3d.pchl_mu.1day.mean.%4yr", 1, "days", 1, "days", "time", 1, "years"
"generic_wombatmid", "pchl_mu", "pchl_mu", "access-om3.mom6.3d.pchl_mu.1day.mean.%4yr", "all", "average", "none", 2

"access-om3.mom6.3d.dchl_mu.1day.mean.%4yr", 1, "days", 1, "days", "time", 1, "years"
"generic_wombatmid", "dchl_mu", "dchl_mu", "access-om3.mom6.3d.dchl_mu.1day.mean.%4yr", "all", "average", "none", 2

"access-om3.mom6.3d.bsidiss.1day.mean.%4yr", 1, "days", 1, "days", "time", 1, "years"
"generic_wombatmid", "bsidiss", "bsidiss", "access-om3.mom6.3d.bsidiss.1day.mean.%4yr", "all", "average", "none", 2

"access-om3.mom6.3d.feIII.1day.mean.%4yr", 1, "days", 1, "days", "time", 1, "years"
"generic_wombatmid", "feIII", "feIII", "access-om3.mom6.3d.feIII.1day.mean.%4yr", "all", "average", "none", 2

"access-om3.mom6.3d.felig.1day.mean.%4yr", 1, "days", 1, "days", "time", 1, "years"
"generic_wombatmid", "felig", "felig", "access-om3.mom6.3d.felig.1day.mean.%4yr", "all", "average", "none", 2

"access-om3.mom6.3d.ligK.1day.mean.%4yr", 1, "days", 1, "days", "time", 1, "years"
"generic_wombatmid", "ligK", "ligK", "access-om3.mom6.3d.ligK.1day.mean.%4yr", "all", "average", "none", 2

"access-om3.mom6.3d.fecol.1day.mean.%4yr", 1, "days", 1, "days", "time", 1, "years"
"generic_wombatmid", "fecol", "fecol", "access-om3.mom6.3d.fecol.1day.mean.%4yr", "all", "average", "none", 2

"access-om3.mom6.3d.fescaven.1day.mean.%4yr", 1, "days", 1, "days", "time", 1, "years"
"generic_wombatmid", "fescaven", "fescaven", "access-om3.mom6.3d.fescaven.1day.mean.%4yr", "all", "average", "none", 2

"access-om3.mom6.3d.fescaafe.1day.mean.%4yr", 1, "days", 1, "days", "time", 1, "years"
"generic_wombatmid", "fescaafe", "fescaafe", "access-om3.mom6.3d.fescaafe.1day.mean.%4yr", "all", "average", "none", 2

"access-om3.mom6.3d.fescabafe.1day.mean.%4yr", 1, "days", 1, "days", "time", 1, "years"
"generic_wombatmid", "fescabafe", "fescabafe", "access-om3.mom6.3d.fescabafe.1day.mean.%4yr", "all", "average", "none", 2

"access-om3.mom6.3d.fecoag2afe.1day.mean.%4yr", 1, "days", 1, "days", "time", 1, "years"
"generic_wombatmid", "fecoag2afe", "fecoag2afe", "access-om3.mom6.3d.fecoag2afe.1day.mean.%4yr", "all", "average", "none", 2

"access-om3.mom6.3d.fecoag2bafe.1day.mean.%4yr", 1, "days", 1, "days", "time", 1, "years"
"generic_wombatmid", "fecoag2bafe", "fecoag2bafe", "access-om3.mom6.3d.fecoag2bafe.1day.mean.%4yr", "all", "average", "none", 2

"access-om3.mom6.3d.afediss.1day.mean.%4yr", 1, "days", 1, "days", "time", 1, "years"
"generic_wombatmid", "afediss", "afediss", "access-om3.mom6.3d.afediss.1day.mean.%4yr", "all", "average", "none", 2

"access-om3.mom6.3d.bafediss.1day.mean.%4yr", 1, "days", 1, "days", "time", 1, "years"
"generic_wombatmid", "bafediss", "bafediss", "access-om3.mom6.3d.bafediss.1day.mean.%4yr", "all", "average", "none", 2

"access-om3.mom6.3d.fesources.1day.mean.%4yr", 1, "days", 1, "days", "time", 1, "years"
"generic_wombatmid", "fesources", "fesources", "access-om3.mom6.3d.fesources.1day.mean.%4yr", "all", "average", "none", 2

"access-om3.mom6.3d.fesinks.1day.mean.%4yr", 1, "days", 1, "days", "time", 1, "years"
"generic_wombatmid", "fesinks", "fesinks", "access-om3.mom6.3d.fesinks.1day.mean.%4yr", "all", "average", "none", 2

"access-om3.mom6.3d.pic2poc.1day.mean.%4yr", 1, "days", 1, "days", "time", 1, "years"
"generic_wombatmid", "pic2poc", "pic2poc", "access-om3.mom6.3d.pic2poc.1day.mean.%4yr", "all", "average", "none", 2

"access-om3.mom6.3d.omega_ara.1day.mean.%4yr", 1, "days", 1, "days", "time", 1, "years"
"generic_wombatmid", "omega_ara", "omega_ara", "access-om3.mom6.3d.omega_ara.1day.mean.%4yr", "all", "average", "none", 2

"access-om3.mom6.3d.omega_cal.1day.mean.%4yr", 1, "days", 1, "days", "time", 1, "years"
"generic_wombatmid", "omega_cal", "omega_cal", "access-om3.mom6.3d.omega_cal.1day.mean.%4yr", "all", "average", "none", 2

"access-om3.mom6.3d.zooeps.1day.mean.%4yr", 1, "days", 1, "days", "time", 1, "years"
"generic_wombatmid", "zooeps", "zooeps", "access-om3.mom6.3d.zooeps.1day.mean.%4yr", "all", "average", "none", 2

"access-om3.mom6.3d.zoograzbac1.1day.mean.%4yr", 1, "days", 1, "days", "time", 1, "years"
"generic_wombatmid", "zoograzbac1", "zoograzbac1", "access-om3.mom6.3d.zoograzbac1.1day.mean.%4yr", "all", "average", "none", 2

"access-om3.mom6.3d.zoograzbac2.1day.mean.%4yr", 1, "days", 1, "days", "time", 1, "years"
"generic_wombatmid", "zoograzbac2", "zoograzbac2", "access-om3.mom6.3d.zoograzbac2.1day.mean.%4yr", "all", "average", "none", 2

"access-om3.mom6.3d.zoograzaoa.1day.mean.%4yr", 1, "days", 1, "days", "time", 1, "years"
"generic_wombatmid", "zoograzaoa", "zoograzaoa", "access-om3.mom6.3d.zoograzaoa.1day.mean.%4yr", "all", "average", "none", 2

"access-om3.mom6.3d.zoograzphy.1day.mean.%4yr", 1, "days", 1, "days", "time", 1, "years"
"generic_wombatmid", "zoograzphy", "zoograzphy", "access-om3.mom6.3d.zoograzphy.1day.mean.%4yr", "all", "average", "none", 2

"access-om3.mom6.3d.zoograzdia.1day.mean.%4yr", 1, "days", 1, "days", "time", 1, "years"
"generic_wombatmid", "zoograzdia", "zoograzdia", "access-om3.mom6.3d.zoograzdia.1day.mean.%4yr", "all", "average", "none", 2

"access-om3.mom6.3d.zoograzdet.1day.mean.%4yr", 1, "days", 1, "days", "time", 1, "years"
"generic_wombatmid", "zoograzdet", "zoograzdet", "access-om3.mom6.3d.zoograzdet.1day.mean.%4yr", "all", "average", "none", 2

"access-om3.mom6.3d.meseps.1day.mean.%4yr", 1, "days", 1, "days", "time", 1, "years"
"generic_wombatmid", "meseps", "meseps", "access-om3.mom6.3d.meseps.1day.mean.%4yr", "all", "average", "none", 2

"access-om3.mom6.3d.mesgrazbac1.1day.mean.%4yr", 1, "days", 1, "days", "time", 1, "years"
"generic_wombatmid", "mesgrazbac1", "mesgrazbac1", "access-om3.mom6.3d.mesgrazbac1.1day.mean.%4yr", "all", "average", "none", 2

"access-om3.mom6.3d.mesgrazbac2.1day.mean.%4yr", 1, "days", 1, "days", "time", 1, "years"
"generic_wombatmid", "mesgrazbac2", "mesgrazbac2", "access-om3.mom6.3d.mesgrazbac2.1day.mean.%4yr", "all", "average", "none", 2

"access-om3.mom6.3d.mesgrazaoa.1day.mean.%4yr", 1, "days", 1, "days", "time", 1, "years"
"generic_wombatmid", "mesgrazaoa", "mesgrazaoa", "access-om3.mom6.3d.mesgrazaoa.1day.mean.%4yr", "all", "average", "none", 2

"access-om3.mom6.3d.mesgrazphy.1day.mean.%4yr", 1, "days", 1, "days", "time", 1, "years"
"generic_wombatmid", "mesgrazphy", "mesgrazphy", "access-om3.mom6.3d.mesgrazphy.1day.mean.%4yr", "all", "average", "none", 2

"access-om3.mom6.3d.mesgrazdia.1day.mean.%4yr", 1, "days", 1, "days", "time", 1, "years"
"generic_wombatmid", "mesgrazdia", "mesgrazdia", "access-om3.mom6.3d.mesgrazdia.1day.mean.%4yr", "all", "average", "none", 2

"access-om3.mom6.3d.mesgrazdet.1day.mean.%4yr", 1, "days", 1, "days", "time", 1, "years"
"generic_wombatmid", "mesgrazdet", "mesgrazdet", "access-om3.mom6.3d.mesgrazdet.1day.mean.%4yr", "all", "average", "none", 2

"access-om3.mom6.3d.mesgrazbdet.1day.mean.%4yr", 1, "days", 1, "days", "time", 1, "years"
"generic_wombatmid", "mesgrazbdet", "mesgrazbdet", "access-om3.mom6.3d.mesgrazbdet.1day.mean.%4yr", "all", "average", "none", 2

"access-om3.mom6.3d.mesgrazzoo.1day.mean.%4yr", 1, "days", 1, "days", "time", 1, "years"
"generic_wombatmid", "mesgrazzoo", "mesgrazzoo", "access-om3.mom6.3d.mesgrazzoo.1day.mean.%4yr", "all", "average", "none", 2

"access-om3.mom6.3d.mesmorq.1day.mean.%4yr", 1, "days", 1, "days", "time", 1, "years"
"generic_wombatmid", "mesmorq", "mesmorq", "access-om3.mom6.3d.mesmorq.1day.mean.%4yr", "all", "average", "none", 2

"access-om3.mom6.3d.detremi.1day.mean.%4yr", 1, "days", 1, "days", "time", 1, "years"
"generic_wombatmid", "detremi", "detremi", "access-om3.mom6.3d.detremi.1day.mean.%4yr", "all", "average", "none", 2

"access-om3.mom6.3d.bdetremi.1day.mean.%4yr", 1, "days", 1, "days", "time", 1, "years"
"generic_wombatmid", "bdetremi", "bdetremi", "access-om3.mom6.3d.bdetremi.1day.mean.%4yr", "all", "average", "none", 2

"access-om3.mom6.3d.doc1remi.1day.mean.%4yr", 1, "days", 1, "days", "time", 1, "years"
"generic_wombatmid", "doc1remi", "doc1remi", "access-om3.mom6.3d.doc1remi.1day.mean.%4yr", "all", "average", "none", 2

"access-om3.mom6.3d.doc2remi.1day.mean.%4yr", 1, "days", 1, "days", "time", 1, "years"
"generic_wombatmid", "doc2remi", "doc2remi", "access-om3.mom6.3d.doc2remi.1day.mean.%4yr", "all", "average", "none", 2

"access-om3.mom6.3d.don1remi.1day.mean.%4yr", 1, "days", 1, "days", "time", 1, "years"
"generic_wombatmid", "don1remi", "don1remi", "access-om3.mom6.3d.don1remi.1day.mean.%4yr", "all", "average", "none", 2

"access-om3.mom6.3d.don2remi.1day.mean.%4yr", 1, "days", 1, "days", "time", 1, "years"
"generic_wombatmid", "don2remi", "don2remi", "access-om3.mom6.3d.don2remi.1day.mean.%4yr", "all", "average", "none", 2

"access-om3.mom6.3d.bac1nupt.1day.mean.%4yr", 1, "days", 1, "days", "time", 1, "years"
"generic_wombatmid", "bac1nupt", "bac1nupt", "access-om3.mom6.3d.bac1nupt.1day.mean.%4yr", "all", "average", "none", 2

"access-om3.mom6.3d.bac2nupt.1day.mean.%4yr", 1, "days", 1, "days", "time", 1, "years"
"generic_wombatmid", "bac2nupt", "bac2nupt", "access-om3.mom6.3d.bac2nupt.1day.mean.%4yr", "all", "average", "none", 2

"access-om3.mom6.3d.bac_ydon.1day.mean.%4yr", 1, "days", 1, "days", "time", 1, "years"
"generic_wombatmid", "bac_ydon", "bac_ydon", "access-om3.mom6.3d.bac_ydon.1day.mean.%4yr", "all", "average", "none", 2

"access-om3.mom6.3d.bac1grow.1day.mean.%4yr", 1, "days", 1, "days", "time", 1, "years"
"generic_wombatmid", "bac1grow", "bac1grow", "access-om3.mom6.3d.bac1grow.1day.mean.%4yr", "all", "average", "none", 2

"access-om3.mom6.3d.bac1_mu.1day.mean.%4yr", 1, "days", 1, "days", "time", 1, "years"
"generic_wombatmid", "bac1_mu", "bac1_mu", "access-om3.mom6.3d.bac1_mu.1day.mean.%4yr", "all", "average", "none", 2

"access-om3.mom6.3d.bac1_ydoc.1day.mean.%4yr", 1, "days", 1, "days", "time", 1, "years"
"generic_wombatmid", "bac1_ydoc", "bac1_ydoc", "access-om3.mom6.3d.bac1_ydoc.1day.mean.%4yr", "all", "average", "none", 2

"access-om3.mom6.3d.bac1resp.1day.mean.%4yr", 1, "days", 1, "days", "time", 1, "years"
"generic_wombatmid", "bac1resp", "bac1resp", "access-om3.mom6.3d.bac1resp.1day.mean.%4yr", "all", "average", "none", 2

"access-om3.mom6.3d.bac1_fanaer.1day.mean.%4yr", 1, "days", 1, "days", "time", 1, "years"
"generic_wombatmid", "bac1_fanaer", "bac1_fanaer", "access-om3.mom6.3d.bac1_fanaer.1day.mean.%4yr", "all", "average", "none", 2

"access-om3.mom6.3d.bac1_fnlim.1day.mean.%4yr", 1, "days", 1, "days", "time", 1, "years"
"generic_wombatmid", "bac1_fnlim", "bac1_fnlim", "access-om3.mom6.3d.bac1_fnlim.1day.mean.%4yr", "all", "average", "none", 2
