F_0 = 7.66358e-05
SOUTHLAT = 31.2
WESTLON = -64.7
